Version 4
SHEET 1 880 728
WIRE 416 48 192 48
WIRE 192 128 192 48
WIRE 144 144 80 144
WIRE 192 288 192 224
WIRE 368 288 192 288
WIRE 192 384 192 288
WIRE 144 464 80 464
WIRE 192 576 192 480
WIRE 464 576 464 560
WIRE 464 576 192 576
WIRE 96 624 -48 624
WIRE 112 624 96 624
WIRE 368 624 368 288
WIRE 368 624 192 624
WIRE -48 688 -48 624
FLAG -48 688 0
FLAG 416 128 0
FLAG 464 480 0
FLAG 80 224 0
FLAG 80 544 0
SYMBOL pmos 144 224 M180
SYMATTR InstName M2
SYMBOL nmos 144 384 R0
SYMATTR InstName M1
SYMBOL voltage 80 128 R0
WINDOW 123 0 0 Left 0
WINDOW 39 0 0 Left 0
SYMATTR InstName V1
SYMATTR Value PULSE(0 5 5 1 1 30 5 1)
SYMBOL voltage 80 448 R0
WINDOW 123 0 0 Left 0
WINDOW 39 0 0 Left 0
SYMATTR InstName V2
SYMATTR Value PULSE(0 5 40 5 5 10 5 1)
SYMBOL voltage 416 32 R0
SYMATTR InstName V3
SYMATTR Value 5
SYMBOL voltage 464 464 R0
SYMATTR InstName V4
SYMATTR Value 5
SYMBOL memristor_biolek 144 624 R90
SYMATTR InstName U1
SYMATTR Value MEM_KNOWM
TEXT 400 664 Left 2 !.lib memristor_knowm.sub
TEXT -72 712 Left 2 !.tran 200
