Version 4
SHEET 1 956 680
WIRE 304 -208 80 -208
WIRE 608 -160 528 -160
WIRE 80 -128 80 -208
WIRE 32 -112 -32 -112
WIRE 608 -32 608 -80
WIRE 80 32 80 -32
WIRE 256 32 80 32
WIRE 528 32 528 -160
WIRE 624 32 528 32
WIRE 896 48 688 48
WIRE 624 64 528 64
WIRE 80 128 80 32
WIRE 32 208 -32 208
WIRE 80 320 80 224
WIRE 352 320 352 304
WIRE 352 320 80 320
WIRE -16 368 -160 368
WIRE 0 368 -16 368
WIRE 256 368 256 32
WIRE 256 368 80 368
WIRE 528 368 528 64
WIRE 528 368 256 368
WIRE 576 368 528 368
WIRE 896 368 656 368
WIRE 896 384 896 368
WIRE -160 432 -160 368
WIRE 896 464 896 448
WIRE 896 528 896 464
WIRE 896 544 896 528
FLAG -160 432 0
FLAG 304 -128 0
FLAG 352 224 0
FLAG -32 -32 0
FLAG -32 288 0
FLAG 896 528 0
FLAG 608 -32 0
FLAG 896 48 Vo
SYMBOL pmos 32 -32 M180
SYMATTR InstName M1
SYMBOL nmos 32 128 R0
SYMATTR InstName M2
SYMBOL voltage -32 -128 R0
WINDOW 123 0 0 Left 0
WINDOW 39 0 0 Left 0
SYMATTR InstName V1
SYMATTR Value PULSE(0 2.5 4.5 20ns 20ns 20ms 5 2)
SYMBOL voltage -32 192 R0
WINDOW 123 0 0 Left 0
WINDOW 39 0 0 Left 0
SYMATTR InstName V2
SYMATTR Value PULSE(0 2.5 4.5 20ns 20ns 20ms 5 2)
SYMBOL voltage 304 -224 R0
SYMATTR InstName V3
SYMATTR Value 2.5
SYMBOL voltage 352 208 R0
WINDOW 123 0 0 Left 0
WINDOW 39 0 0 Left 0
SYMATTR InstName V4
SYMATTR Value 2.5
SYMBOL memristor_biolek 32 368 R90
SYMATTR InstName U1
SYMATTR Value MEM_BIOLEK
SYMBOL res 672 352 R90
WINDOW 0 0 56 VBottom 2
WINDOW 3 32 56 VTop 2
SYMATTR InstName R2
SYMATTR Value 10k
SYMBOL voltage 608 -176 R0
WINDOW 123 0 0 Left 0
WINDOW 39 0 0 Left 0
SYMATTR InstName V5
SYMATTR Value SINE(0 1.3 1)
SYMBOL voltage 896 368 R0
SYMATTR InstName V6
SYMATTR Value 2.5
SYMBOL Opamps\\AD746 656 -16 R0
SYMATTR InstName U2
TEXT 288 408 Left 2 !.lib memristor_biolek.sub
TEXT -184 456 Left 2 !.tran 15
